<?xml version="1.0" encoding="UTF-8"?>

<!-- generated on 09/10/19 01:00:08 by Eclipse SUMO netedit Version 1.3.1
<configuration xmlns:xsi="http://www.w3.org/2001/XMLSchema-instance" xsi:noNamespaceSchemaLocation="http://sumo.dlr.de/xsd/netconvertConfiguration.xsd">

    <input>
        <sumo-net-file value="C:\Sumo_Projects\Greenline_LRT_Baseline_00\Greenline_LRT_Baseline_00.net.xml"/>
    </input>

    <output>
        <output-file value="C:\Sumo_Projects\Greenline_LRT_Baseline_00\Greenline_LRT_Baseline_00.net.xml"/>
    </output>

    <processing>
        <geometry.max-grade.fix value="false"/>
        <offset.disable-normalization value="true"/>
        <opposites.guess.fix-lengths value="true"/>
        <lefthand value="false"/>
    </processing>

    <junctions>
        <no-turnarounds value="true"/>
        <junctions.corner-detail value="5"/>
        <junctions.limit-turn-speed value="5.5"/>
        <rectangular-lane-cut value="false"/>
    </junctions>

    <pedestrian>
        <walkingareas value="false"/>
    </pedestrian>

    <visualisation>
        <registry-viewport value="true"/>
    </visualisation>

</configuration>
-->

<net version="1.3" junctionCornerDetail="5" limitTurnSpeed="5.50" xmlns:xsi="http://www.w3.org/2001/XMLSchema-instance" xsi:noNamespaceSchemaLocation="http://sumo.dlr.de/xsd/net_file.xsd">

    <location netOffset="0.00,0.00" convBoundary="0.00,-333.39,62.41,260.00" origBoundary="-10000000000.00,-10000000000.00,10000000000.00,10000000000.00" projParameter="!"/>

    <edge id=":gneJ0_0" function="internal">
        <lane id=":gneJ0_0_0" index="0" speed="3.90" length="2.58" shape="0.00,261.60 -0.70,261.50 -1.20,261.20 -1.50,260.70 -1.60,260.00"/>
    </edge>
    <edge id=":gneJ1_0" function="internal">
        <lane id=":gneJ1_0_0" index="0" speed="13.89" length="0.10" shape="-1.60,240.00 -1.60,240.00"/>
    </edge>
    <edge id=":gneJ10_0" function="internal">
        <lane id=":gneJ10_0_0" index="0" speed="13.89" length="0.10" shape="-1.60,40.00 -1.60,40.00"/>
    </edge>
    <edge id=":gneJ11_0" function="internal">
        <lane id=":gneJ11_0_0" index="0" speed="4.20" length="1.26" shape="-1.60,20.00 -1.57,19.68 -1.48,19.39 -1.34,19.12 -1.13,18.87"/>
    </edge>
    <edge id=":gneJ12_0" function="internal">
        <lane id=":gneJ12_0_0" index="0" speed="4.20" length="1.26" shape="17.93,-0.19 18.14,-0.44 18.28,-0.71 18.37,-1.01 18.40,-1.33"/>
    </edge>
    <edge id=":gneJ13_0" function="internal">
        <lane id=":gneJ13_0_0" index="0" speed="13.89" length="0.10" shape="18.40,-20.00 18.40,-20.00"/>
    </edge>
    <edge id=":gneJ14_0" function="internal">
        <lane id=":gneJ14_0_0" index="0" speed="13.89" length="0.10" shape="18.40,-40.00 18.40,-40.00"/>
    </edge>
    <edge id=":gneJ15_0" function="internal">
        <lane id=":gneJ15_0_0" index="0" speed="13.89" length="0.10" shape="18.40,-60.00 18.40,-60.00"/>
    </edge>
    <edge id=":gneJ16_0" function="internal">
        <lane id=":gneJ16_0_0" index="0" speed="13.89" length="0.10" shape="18.40,-80.00 18.40,-80.00"/>
    </edge>
    <edge id=":gneJ17_0" function="internal">
        <lane id=":gneJ17_0_0" index="0" speed="13.89" length="0.10" shape="18.40,-100.00 18.40,-100.00"/>
    </edge>
    <edge id=":gneJ18_0" function="internal">
        <lane id=":gneJ18_0_0" index="0" speed="13.89" length="0.10" shape="18.40,-120.00 18.40,-120.00"/>
    </edge>
    <edge id=":gneJ19_0" function="internal">
        <lane id=":gneJ19_0_0" index="0" speed="13.89" length="0.10" shape="18.40,-140.00 18.40,-140.00"/>
    </edge>
    <edge id=":gneJ2_0" function="internal">
        <lane id=":gneJ2_0_0" index="0" speed="13.89" length="0.10" shape="-1.60,220.00 -1.60,220.00"/>
    </edge>
    <edge id=":gneJ20_0" function="internal">
        <lane id=":gneJ20_0_0" index="0" speed="13.89" length="0.10" shape="18.40,-160.00 18.40,-160.00"/>
    </edge>
    <edge id=":gneJ22_0" function="internal">
        <lane id=":gneJ22_0_0" index="0" speed="13.89" length="0.10" shape="18.40,-180.00 18.40,-180.00"/>
    </edge>
    <edge id=":gneJ23_0" function="internal">
        <lane id=":gneJ23_0_0" index="0" speed="13.89" length="0.10" shape="18.40,-200.00 18.40,-200.00"/>
    </edge>
    <edge id=":gneJ25_0" function="internal">
        <lane id=":gneJ25_0_0" index="0" speed="13.89" length="0.10" shape="18.40,-240.00 18.40,-240.00"/>
    </edge>
    <edge id=":gneJ26_0" function="internal">
        <lane id=":gneJ26_0_0" index="0" speed="13.89" length="0.22" shape="18.40,-259.86 18.40,-260.07"/>
    </edge>
    <edge id=":gneJ3_0" function="internal">
        <lane id=":gneJ3_0_0" index="0" speed="13.89" length="0.10" shape="-1.60,180.00 -1.60,180.00"/>
    </edge>
    <edge id=":gneJ35_0" function="internal">
        <lane id=":gneJ35_0_0" index="0" speed="13.89" length="0.26" shape="61.60,-237.12 61.60,-236.86"/>
    </edge>
    <edge id=":gneJ37_0" function="internal">
        <lane id=":gneJ37_0_0" index="0" speed="13.89" length="0.10" shape="61.60,-200.00 61.60,-200.00"/>
    </edge>
    <edge id=":gneJ38_0" function="internal">
        <lane id=":gneJ38_0_0" index="0" speed="13.89" length="0.10" shape="61.60,-180.00 61.60,-180.00"/>
    </edge>
    <edge id=":gneJ39_0" function="internal">
        <lane id=":gneJ39_0_0" index="0" speed="13.89" length="0.10" shape="61.60,-160.00 61.60,-160.00"/>
    </edge>
    <edge id=":gneJ4_0" function="internal">
        <lane id=":gneJ4_0_0" index="0" speed="13.89" length="0.10" shape="-1.60,160.00 -1.60,160.00"/>
    </edge>
    <edge id=":gneJ40_0" function="internal">
        <lane id=":gneJ40_0_0" index="0" speed="13.89" length="0.10" shape="61.60,-140.00 61.60,-140.00"/>
    </edge>
    <edge id=":gneJ41_0" function="internal">
        <lane id=":gneJ41_0_0" index="0" speed="13.89" length="0.10" shape="61.60,-120.00 61.60,-120.00"/>
    </edge>
    <edge id=":gneJ42_0" function="internal">
        <lane id=":gneJ42_0_0" index="0" speed="13.89" length="0.10" shape="61.60,-100.00 61.60,-100.00"/>
    </edge>
    <edge id=":gneJ43_0" function="internal">
        <lane id=":gneJ43_0_0" index="0" speed="13.89" length="0.10" shape="61.60,-80.00 61.60,-80.00"/>
    </edge>
    <edge id=":gneJ44_0" function="internal">
        <lane id=":gneJ44_0_0" index="0" speed="13.89" length="0.10" shape="61.60,-60.00 61.60,-60.00"/>
    </edge>
    <edge id=":gneJ45_0" function="internal">
        <lane id=":gneJ45_0_0" index="0" speed="13.89" length="0.10" shape="61.60,-40.00 61.60,-40.00"/>
    </edge>
    <edge id=":gneJ46_0" function="internal">
        <lane id=":gneJ46_0_0" index="0" speed="13.89" length="0.10" shape="61.60,-20.00 61.60,-20.00"/>
    </edge>
    <edge id=":gneJ47_0" function="internal">
        <lane id=":gneJ47_0_0" index="0" speed="13.89" length="0.75" shape="61.60,0.00 61.60,0.22 61.58,0.37 61.53,0.52 61.43,0.72"/>
    </edge>
    <edge id=":gneJ48_0" function="internal">
        <lane id=":gneJ48_0_0" index="0" speed="13.89" length="0.75" shape="41.77,40.04 41.67,40.24 41.62,40.38 41.60,40.53 41.60,40.76"/>
    </edge>
    <edge id=":gneJ49_0" function="internal">
        <lane id=":gneJ49_0_0" index="0" speed="13.89" length="0.10" shape="41.60,60.00 41.60,60.00"/>
    </edge>
    <edge id=":gneJ5_0" function="internal">
        <lane id=":gneJ5_0_0" index="0" speed="13.89" length="0.10" shape="-1.60,140.00 -1.60,140.00"/>
    </edge>
    <edge id=":gneJ50_0" function="internal">
        <lane id=":gneJ50_0_0" index="0" speed="13.89" length="0.10" shape="41.60,80.00 41.60,80.00"/>
    </edge>
    <edge id=":gneJ51_0" function="internal">
        <lane id=":gneJ51_0_0" index="0" speed="13.89" length="0.30" shape="41.60,99.85 41.60,100.14"/>
    </edge>
    <edge id=":gneJ53_0" function="internal">
        <lane id=":gneJ53_0_0" index="0" speed="13.89" length="0.30" shape="41.60,139.86 41.60,140.15"/>
    </edge>
    <edge id=":gneJ54_0" function="internal">
        <lane id=":gneJ54_0_0" index="0" speed="13.89" length="0.10" shape="41.60,160.00 41.60,160.00"/>
    </edge>
    <edge id=":gneJ55_0" function="internal">
        <lane id=":gneJ55_0_0" index="0" speed="13.89" length="0.10" shape="41.60,180.00 41.60,180.00"/>
    </edge>
    <edge id=":gneJ57_0" function="internal">
        <lane id=":gneJ57_0_0" index="0" speed="13.89" length="0.10" shape="41.60,220.00 41.60,220.00"/>
    </edge>
    <edge id=":gneJ58_0" function="internal">
        <lane id=":gneJ58_0_0" index="0" speed="13.89" length="0.10" shape="41.60,240.00 41.60,240.00"/>
    </edge>
    <edge id=":gneJ59_0" function="internal">
        <lane id=":gneJ59_0_0" index="0" speed="3.90" length="2.58" shape="41.60,260.00 41.50,260.70 41.20,261.20 40.70,261.50 40.00,261.60"/>
    </edge>
    <edge id=":gneJ6_0" function="internal">
        <lane id=":gneJ6_0_0" index="0" speed="13.89" length="0.10" shape="-1.60,120.00 -1.60,120.00"/>
    </edge>
    <edge id=":gneJ67_0" function="internal">
        <lane id=":gneJ67_0_0" index="0" speed="13.89" length="0.29" shape="41.76,121.03 41.76,121.31"/>
    </edge>
    <edge id=":gneJ7_0" function="internal">
        <lane id=":gneJ7_0_0" index="0" speed="13.89" length="0.10" shape="-1.60,100.00 -1.60,100.00"/>
    </edge>
    <edge id=":gneJ72_0" function="internal">
        <lane id=":gneJ72_0_0" index="0" speed="13.89" length="0.24" shape="17.73,-276.29 17.71,-276.53"/>
    </edge>
    <edge id=":gneJ73_0" function="internal">
        <lane id=":gneJ73_0_0" index="0" speed="13.89" length="0.12" shape="16.53,-292.05 16.53,-292.17"/>
    </edge>
    <edge id=":gneJ74_0" function="internal">
        <lane id=":gneJ74_0_0" index="0" speed="13.89" length="0.29" shape="16.53,-306.68 16.53,-306.98"/>
    </edge>
    <edge id=":gneJ75_0" function="internal">
        <lane id=":gneJ75_0_0" index="0" speed="3.94" length="2.08" shape="16.70,-321.66 16.78,-322.21 17.00,-322.64 17.37,-322.97 17.87,-323.18"/>
    </edge>
    <edge id=":gneJ76_0" function="internal">
        <lane id=":gneJ76_0_0" index="0" speed="3.91" length="3.00" shape="60.45,-334.93 61.30,-335.04 61.92,-334.83 62.31,-334.31 62.48,-333.48"/>
    </edge>
    <edge id=":gneJ77_0" function="internal">
        <lane id=":gneJ77_0_0" index="0" speed="13.89" length="0.10" shape="63.84,-309.64 63.84,-309.57"/>
    </edge>
    <edge id=":gneJ78_0" function="internal">
        <lane id=":gneJ78_0_0" index="0" speed="13.89" length="0.10" shape="64.01,-292.19 64.01,-292.11"/>
    </edge>
    <edge id=":gneJ79_0" function="internal">
        <lane id=":gneJ79_0_0" index="0" speed="13.89" length="0.10" shape="63.33,-273.89 63.33,-273.84"/>
    </edge>
    <edge id=":gneJ8_0" function="internal">
        <lane id=":gneJ8_0_0" index="0" speed="13.89" length="0.10" shape="-1.60,80.00 -1.60,80.00"/>
    </edge>
    <edge id=":gneJ80_0" function="internal">
        <lane id=":gneJ80_0_0" index="0" speed="13.89" length="0.21" shape="62.19,-257.79 62.18,-257.59"/>
    </edge>
    <edge id=":gneJ81_0" function="internal">
        <lane id=":gneJ81_0_0" index="0" speed="13.89" length="0.10" shape="51.05,21.48 51.05,21.48"/>
    </edge>
    <edge id=":gneJ9_0" function="internal">
        <lane id=":gneJ9_0_0" index="0" speed="13.89" length="0.10" shape="-1.60,60.00 -1.60,60.00"/>
    </edge>

    <edge id="bottom" from="gneJ75" to="gneJ76" priority="-1">
        <lane id="bottom_0" index="0" speed="13.89" length="44.17" shape="17.87,-323.18 60.45,-334.93"/>
    </edge>
    <edge id="gneE0" from="gneJ0" to="gneJ1" priority="-1">
        <lane id="gneE0_0" index="0" speed="13.89" length="20.00" shape="-1.60,260.00 -1.60,240.00"/>
    </edge>
    <edge id="gneE1" from="gneJ1" to="gneJ2" priority="-1">
        <lane id="gneE1_0" index="0" speed="13.89" length="20.00" shape="-1.60,240.00 -1.60,220.00"/>
    </edge>
    <edge id="gneE10" from="gneJ10" to="gneJ11" priority="-1">
        <lane id="gneE10_0" index="0" speed="13.89" length="20.00" shape="-1.60,40.00 -1.60,20.00"/>
    </edge>
    <edge id="gneE11" from="gneJ11" to="gneJ12" priority="-1">
        <lane id="gneE11_0" index="0" speed="13.89" length="26.96" shape="-1.13,18.87 17.93,-0.19"/>
    </edge>
    <edge id="gneE12" from="gneJ12" to="gneJ13" priority="-1">
        <lane id="gneE12_0" index="0" speed="13.89" length="18.67" shape="18.40,-1.33 18.40,-20.00"/>
    </edge>
    <edge id="gneE13" from="gneJ13" to="gneJ14" priority="-1">
        <lane id="gneE13_0" index="0" speed="13.89" length="20.00" shape="18.40,-20.00 18.40,-40.00"/>
    </edge>
    <edge id="gneE14" from="gneJ14" to="gneJ15" priority="-1">
        <lane id="gneE14_0" index="0" speed="13.89" length="20.00" shape="18.40,-40.00 18.40,-60.00"/>
    </edge>
    <edge id="gneE15" from="gneJ15" to="gneJ16" priority="-1">
        <lane id="gneE15_0" index="0" speed="13.89" length="20.00" shape="18.40,-60.00 18.40,-80.00"/>
    </edge>
    <edge id="gneE16" from="gneJ16" to="gneJ17" priority="-1">
        <lane id="gneE16_0" index="0" speed="13.89" length="20.00" shape="18.40,-80.00 18.40,-100.00"/>
    </edge>
    <edge id="gneE17" from="gneJ17" to="gneJ18" priority="-1">
        <lane id="gneE17_0" index="0" speed="13.89" length="20.00" shape="18.40,-100.00 18.40,-120.00"/>
    </edge>
    <edge id="gneE18" from="gneJ18" to="gneJ19" priority="-1">
        <lane id="gneE18_0" index="0" speed="13.89" length="20.00" shape="18.40,-120.00 18.40,-140.00"/>
    </edge>
    <edge id="gneE19" from="gneJ19" to="gneJ20" priority="-1">
        <lane id="gneE19_0" index="0" speed="13.89" length="20.00" shape="18.40,-140.00 18.40,-160.00"/>
    </edge>
    <edge id="gneE2" from="gneJ2" to="gneJ3" priority="-1">
        <lane id="gneE2_0" index="0" speed="13.89" length="40.00" shape="-1.60,220.00 -1.60,180.00"/>
    </edge>
    <edge id="gneE22" from="gneJ22" to="gneJ23" priority="-1">
        <lane id="gneE22_0" index="0" speed="13.89" length="20.00" shape="18.40,-180.00 18.40,-200.00"/>
    </edge>
    <edge id="gneE23" from="gneJ23" to="gneJ25" priority="-1">
        <lane id="gneE23_0" index="0" speed="13.89" length="40.00" shape="18.40,-200.00 18.40,-240.00"/>
    </edge>
    <edge id="gneE25" from="gneJ25" to="gneJ26" priority="-1">
        <lane id="gneE25_0" index="0" speed="13.89" length="19.86" shape="18.40,-240.00 18.40,-259.86"/>
    </edge>
    <edge id="gneE3" from="gneJ3" to="gneJ4" priority="-1">
        <lane id="gneE3_0" index="0" speed="13.89" length="20.00" shape="-1.60,180.00 -1.60,160.00"/>
    </edge>
    <edge id="gneE31" from="gneJ35" to="gneJ37" priority="-1">
        <lane id="gneE31_0" index="0" speed="13.89" length="36.86" shape="61.60,-236.86 61.60,-200.00"/>
    </edge>
    <edge id="gneE33" from="gneJ37" to="gneJ38" priority="-1">
        <lane id="gneE33_0" index="0" speed="13.89" length="20.00" shape="61.60,-200.00 61.60,-180.00"/>
    </edge>
    <edge id="gneE34" from="gneJ38" to="gneJ39" priority="-1">
        <lane id="gneE34_0" index="0" speed="13.89" length="20.00" shape="61.60,-180.00 61.60,-160.00"/>
    </edge>
    <edge id="gneE35" from="gneJ39" to="gneJ40" priority="-1">
        <lane id="gneE35_0" index="0" speed="13.89" length="20.00" shape="61.60,-160.00 61.60,-140.00"/>
    </edge>
    <edge id="gneE36" from="gneJ40" to="gneJ41" priority="-1">
        <lane id="gneE36_0" index="0" speed="13.89" length="20.00" shape="61.60,-140.00 61.60,-120.00"/>
    </edge>
    <edge id="gneE37" from="gneJ41" to="gneJ42" priority="-1">
        <lane id="gneE37_0" index="0" speed="13.89" length="20.00" shape="61.60,-120.00 61.60,-100.00"/>
    </edge>
    <edge id="gneE38" from="gneJ42" to="gneJ43" priority="-1">
        <lane id="gneE38_0" index="0" speed="13.89" length="20.00" shape="61.60,-100.00 61.60,-80.00"/>
    </edge>
    <edge id="gneE39" from="gneJ43" to="gneJ44" priority="-1">
        <lane id="gneE39_0" index="0" speed="13.89" length="20.00" shape="61.60,-80.00 61.60,-60.00"/>
    </edge>
    <edge id="gneE4" from="gneJ4" to="gneJ5" priority="-1">
        <lane id="gneE4_0" index="0" speed="13.89" length="20.00" shape="-1.60,160.00 -1.60,140.00"/>
    </edge>
    <edge id="gneE40" from="gneJ44" to="gneJ45" priority="-1">
        <lane id="gneE40_0" index="0" speed="13.89" length="20.00" shape="61.60,-60.00 61.60,-40.00"/>
    </edge>
    <edge id="gneE41" from="gneJ45" to="gneJ46" priority="-1">
        <lane id="gneE41_0" index="0" speed="13.89" length="20.00" shape="61.60,-40.00 61.60,-20.00"/>
    </edge>
    <edge id="gneE42" from="gneJ46" to="gneJ47" priority="-1">
        <lane id="gneE42_0" index="0" speed="13.89" length="20.00" shape="61.60,-20.00 61.60,0.00"/>
    </edge>
    <edge id="gneE43" from="gneJ47" to="gneJ81" priority="-1">
        <lane id="gneE43_0" index="0" speed="13.89" length="23.21" shape="61.43,0.72 51.05,21.48"/>
    </edge>
    <edge id="gneE43.23" from="gneJ81" to="gneJ48" priority="-1">
        <lane id="gneE43.23_0" index="0" speed="13.89" length="20.76" shape="51.05,21.48 41.77,40.04"/>
    </edge>
    <edge id="gneE44" from="gneJ48" to="gneJ49" priority="-1">
        <lane id="gneE44_0" index="0" speed="13.89" length="19.24" shape="41.60,40.76 41.60,60.00"/>
    </edge>
    <edge id="gneE45" from="gneJ49" to="gneJ50" priority="-1">
        <lane id="gneE45_0" index="0" speed="13.89" length="20.00" shape="41.60,60.00 41.60,80.00"/>
    </edge>
    <edge id="gneE46" from="gneJ50" to="gneJ51" priority="-1">
        <lane id="gneE46_0" index="0" speed="13.89" length="19.85" shape="41.60,80.00 41.60,99.85"/>
    </edge>
    <edge id="gneE49" from="gneJ53" to="gneJ54" priority="-1">
        <lane id="gneE49_0" index="0" speed="13.89" length="19.85" shape="41.60,140.15 41.60,160.00"/>
    </edge>
    <edge id="gneE5" from="gneJ5" to="gneJ6" priority="-1">
        <lane id="gneE5_0" index="0" speed="13.89" length="20.00" shape="-1.60,140.00 -1.60,120.00"/>
    </edge>
    <edge id="gneE50" from="gneJ54" to="gneJ55" priority="-1">
        <lane id="gneE50_0" index="0" speed="13.89" length="20.00" shape="41.60,160.00 41.60,180.00"/>
    </edge>
    <edge id="gneE53" from="gneJ57" to="gneJ58" priority="-1">
        <lane id="gneE53_0" index="0" speed="13.89" length="20.00" shape="41.60,220.00 41.60,240.00"/>
    </edge>
    <edge id="gneE54" from="gneJ58" to="gneJ59" priority="-1">
        <lane id="gneE54_0" index="0" speed="13.89" length="20.00" shape="41.60,240.00 41.60,260.00"/>
    </edge>
    <edge id="gneE58" from="gneJ20" to="gneJ22" priority="-1">
        <lane id="gneE58_0" index="0" speed="13.89" length="20.00" shape="18.40,-160.00 18.40,-180.00"/>
    </edge>
    <edge id="gneE6" from="gneJ6" to="gneJ7" priority="-1">
        <lane id="gneE6_0" index="0" speed="13.89" length="20.00" shape="-1.60,120.00 -1.60,100.00"/>
    </edge>
    <edge id="gneE61" from="gneJ67" to="gneJ53" priority="-1">
        <lane id="gneE61_0" index="0" speed="13.89" length="18.54" shape="41.76,121.31 41.60,139.86"/>
    </edge>
    <edge id="gneE62" from="gneJ51" to="gneJ67" priority="-1">
        <lane id="gneE62_0" index="0" speed="13.89" length="20.89" shape="41.60,100.14 41.76,121.03"/>
    </edge>
    <edge id="gneE63" from="gneJ55" to="gneJ57" priority="-1">
        <lane id="gneE63_0" index="0" speed="13.89" length="40.00" shape="41.60,180.00 41.60,220.00"/>
    </edge>
    <edge id="gneE67" from="gneJ26" to="gneJ72" priority="-1">
        <lane id="gneE67_0" index="0" speed="13.89" length="16.23" shape="18.40,-260.07 17.73,-276.29"/>
    </edge>
    <edge id="gneE68" from="gneJ72" to="gneJ73" priority="-1">
        <lane id="gneE68_0" index="0" speed="13.89" length="15.57" shape="17.71,-276.53 16.53,-292.05"/>
    </edge>
    <edge id="gneE69" from="gneJ73" to="gneJ74" priority="-1">
        <lane id="gneE69_0" index="0" speed="13.89" length="14.51" shape="16.53,-292.17 16.53,-306.68"/>
    </edge>
    <edge id="gneE7" from="gneJ7" to="gneJ8" priority="-1">
        <lane id="gneE7_0" index="0" speed="13.89" length="20.00" shape="-1.60,100.00 -1.60,80.00"/>
    </edge>
    <edge id="gneE70" from="gneJ74" to="gneJ75" priority="-1">
        <lane id="gneE70_0" index="0" speed="13.89" length="14.68" shape="16.53,-306.98 16.70,-321.66"/>
    </edge>
    <edge id="gneE72" from="gneJ76" to="gneJ77" priority="-1">
        <lane id="gneE72_0" index="0" speed="13.89" length="23.88" shape="62.48,-333.48 63.84,-309.64"/>
    </edge>
    <edge id="gneE73" from="gneJ77" to="gneJ78" priority="-1">
        <lane id="gneE73_0" index="0" speed="13.89" length="17.38" shape="63.84,-309.57 64.01,-292.19"/>
    </edge>
    <edge id="gneE74" from="gneJ78" to="gneJ79" priority="-1">
        <lane id="gneE74_0" index="0" speed="13.89" length="18.23" shape="64.01,-292.11 63.33,-273.89"/>
    </edge>
    <edge id="gneE76" from="gneJ79" to="gneJ80" priority="-1">
        <lane id="gneE76_0" index="0" speed="13.89" length="16.08" shape="63.33,-273.84 62.19,-257.79"/>
    </edge>
    <edge id="gneE76.8" from="gneJ80" to="gneJ35" priority="-1">
        <lane id="gneE76.8_0" index="0" speed="13.89" length="20.48" shape="62.18,-257.59 61.60,-237.12"/>
    </edge>
    <edge id="gneE8" from="gneJ8" to="gneJ9" priority="-1">
        <lane id="gneE8_0" index="0" speed="13.89" length="20.00" shape="-1.60,80.00 -1.60,60.00"/>
    </edge>
    <edge id="gneE9" from="gneJ9" to="gneJ10" priority="-1">
        <lane id="gneE9_0" index="0" speed="13.89" length="20.00" shape="-1.60,60.00 -1.60,40.00"/>
    </edge>
    <edge id="top" from="gneJ59" to="gneJ0" priority="-1">
        <lane id="top_0" index="0" speed="13.89" length="40.00" shape="40.00,261.60 0.00,261.60"/>
    </edge>

    <junction id="gneJ0" type="priority" x="0.00" y="260.00" incLanes="top_0" intLanes=":gneJ0_0_0" shape="0.00,263.20 0.00,260.00 -3.20,260.00 -2.84,261.78 -2.40,262.40 -1.78,262.84 -0.98,263.11">
        <request index="0" response="0" foes="0" cont="0"/>
    </junction>
    <junction id="gneJ1" type="priority" x="0.00" y="240.00" incLanes="gneE0_0" intLanes=":gneJ1_0_0" shape="-3.20,240.00 0.00,240.00 -3.20,240.00">
        <request index="0" response="0" foes="0" cont="0"/>
    </junction>
    <junction id="gneJ10" type="priority" x="0.00" y="40.00" incLanes="gneE9_0" intLanes=":gneJ10_0_0" shape="-3.20,40.00 0.00,40.00 -3.20,40.00">
        <request index="0" response="0" foes="0" cont="0"/>
    </junction>
    <junction id="gneJ11" type="priority" x="0.00" y="20.00" incLanes="gneE10_0" intLanes=":gneJ11_0_0" shape="-3.20,20.00 0.00,20.00 -2.26,17.74 -2.78,18.41 -2.97,18.77 -3.10,19.16 -3.17,19.57">
        <request index="0" response="0" foes="0" cont="0"/>
    </junction>
    <junction id="gneJ12" type="priority" x="20.00" y="0.00" incLanes="gneE11_0" intLanes=":gneJ12_0_0" shape="20.00,-1.33 16.80,-1.33 19.06,0.94 19.58,0.27 19.77,-0.10 19.90,-0.48 19.97,-0.89">
        <request index="0" response="0" foes="0" cont="0"/>
    </junction>
    <junction id="gneJ13" type="priority" x="20.00" y="-20.00" incLanes="gneE12_0" intLanes=":gneJ13_0_0" shape="16.80,-20.00 20.00,-20.00 16.80,-20.00">
        <request index="0" response="0" foes="0" cont="0"/>
    </junction>
    <junction id="gneJ14" type="priority" x="20.00" y="-40.00" incLanes="gneE13_0" intLanes=":gneJ14_0_0" shape="16.80,-40.00 20.00,-40.00 16.80,-40.00">
        <request index="0" response="0" foes="0" cont="0"/>
    </junction>
    <junction id="gneJ15" type="priority" x="20.00" y="-60.00" incLanes="gneE14_0" intLanes=":gneJ15_0_0" shape="16.80,-60.00 20.00,-60.00 16.80,-60.00">
        <request index="0" response="0" foes="0" cont="0"/>
    </junction>
    <junction id="gneJ16" type="priority" x="20.00" y="-80.00" incLanes="gneE15_0" intLanes=":gneJ16_0_0" shape="16.80,-80.00 20.00,-80.00 16.80,-80.00">
        <request index="0" response="0" foes="0" cont="0"/>
    </junction>
    <junction id="gneJ17" type="priority" x="20.00" y="-100.00" incLanes="gneE16_0" intLanes=":gneJ17_0_0" shape="16.80,-100.00 20.00,-100.00 16.80,-100.00">
        <request index="0" response="0" foes="0" cont="0"/>
    </junction>
    <junction id="gneJ18" type="priority" x="20.00" y="-120.00" incLanes="gneE17_0" intLanes=":gneJ18_0_0" shape="16.80,-120.00 20.00,-120.00 16.80,-120.00">
        <request index="0" response="0" foes="0" cont="0"/>
    </junction>
    <junction id="gneJ19" type="priority" x="20.00" y="-140.00" incLanes="gneE18_0" intLanes=":gneJ19_0_0" shape="16.80,-140.00 20.00,-140.00 16.80,-140.00">
        <request index="0" response="0" foes="0" cont="0"/>
    </junction>
    <junction id="gneJ2" type="priority" x="0.00" y="220.00" incLanes="gneE1_0" intLanes=":gneJ2_0_0" shape="-3.20,220.00 0.00,220.00 -3.20,220.00">
        <request index="0" response="0" foes="0" cont="0"/>
    </junction>
    <junction id="gneJ20" type="priority" x="20.00" y="-160.00" incLanes="gneE19_0" intLanes=":gneJ20_0_0" shape="16.80,-160.00 20.00,-160.00 16.80,-160.00">
        <request index="0" response="0" foes="0" cont="0"/>
    </junction>
    <junction id="gneJ22" type="priority" x="20.00" y="-180.00" incLanes="gneE58_0" intLanes=":gneJ22_0_0" shape="16.80,-180.00 20.00,-180.00 16.80,-180.00">
        <request index="0" response="0" foes="0" cont="0"/>
    </junction>
    <junction id="gneJ23" type="priority" x="20.00" y="-200.00" incLanes="gneE22_0" intLanes=":gneJ23_0_0" shape="16.80,-200.00 20.00,-200.00 16.80,-200.00">
        <request index="0" response="0" foes="0" cont="0"/>
    </junction>
    <junction id="gneJ25" type="priority" x="20.00" y="-240.00" incLanes="gneE23_0" intLanes=":gneJ25_0_0" shape="16.80,-240.00 20.00,-240.00 16.80,-240.00">
        <request index="0" response="0" foes="0" cont="0"/>
    </junction>
    <junction id="gneJ26" type="priority" x="20.00" y="-260.00" incLanes="gneE25_0" intLanes=":gneJ26_0_0" shape="16.80,-259.86 20.00,-259.86 19.99,-260.14 16.80,-260.01">
        <request index="0" response="0" foes="0" cont="0"/>
    </junction>
    <junction id="gneJ3" type="priority" x="0.00" y="180.00" incLanes="gneE2_0" intLanes=":gneJ3_0_0" shape="-3.20,180.00 0.00,180.00 -3.20,180.00">
        <request index="0" response="0" foes="0" cont="0"/>
    </junction>
    <junction id="gneJ35" type="priority" x="60.00" y="-237.01" incLanes="gneE76.8_0" intLanes=":gneJ35_0_0" shape="60.00,-236.86 63.20,-236.86 63.20,-237.07 60.00,-237.16">
        <request index="0" response="0" foes="0" cont="0"/>
    </junction>
    <junction id="gneJ37" type="priority" x="60.00" y="-200.00" incLanes="gneE31_0" intLanes=":gneJ37_0_0" shape="60.00,-200.00 63.20,-200.00 60.00,-200.00">
        <request index="0" response="0" foes="0" cont="0"/>
    </junction>
    <junction id="gneJ38" type="priority" x="60.00" y="-180.00" incLanes="gneE33_0" intLanes=":gneJ38_0_0" shape="60.00,-180.00 63.20,-180.00 60.00,-180.00">
        <request index="0" response="0" foes="0" cont="0"/>
    </junction>
    <junction id="gneJ39" type="priority" x="60.00" y="-160.00" incLanes="gneE34_0" intLanes=":gneJ39_0_0" shape="60.00,-160.00 63.20,-160.00 60.00,-160.00">
        <request index="0" response="0" foes="0" cont="0"/>
    </junction>
    <junction id="gneJ4" type="priority" x="0.00" y="160.00" incLanes="gneE3_0" intLanes=":gneJ4_0_0" shape="-3.20,160.00 0.00,160.00 -3.20,160.00">
        <request index="0" response="0" foes="0" cont="0"/>
    </junction>
    <junction id="gneJ40" type="priority" x="60.00" y="-140.00" incLanes="gneE35_0" intLanes=":gneJ40_0_0" shape="60.00,-140.00 63.20,-140.00 60.00,-140.00">
        <request index="0" response="0" foes="0" cont="0"/>
    </junction>
    <junction id="gneJ41" type="priority" x="60.00" y="-120.00" incLanes="gneE36_0" intLanes=":gneJ41_0_0" shape="60.00,-120.00 63.20,-120.00 60.00,-120.00">
        <request index="0" response="0" foes="0" cont="0"/>
    </junction>
    <junction id="gneJ42" type="priority" x="60.00" y="-100.00" incLanes="gneE37_0" intLanes=":gneJ42_0_0" shape="60.00,-100.00 63.20,-100.00 60.00,-100.00">
        <request index="0" response="0" foes="0" cont="0"/>
    </junction>
    <junction id="gneJ43" type="priority" x="60.00" y="-80.00" incLanes="gneE38_0" intLanes=":gneJ43_0_0" shape="60.00,-80.00 63.20,-80.00 60.00,-80.00">
        <request index="0" response="0" foes="0" cont="0"/>
    </junction>
    <junction id="gneJ44" type="priority" x="60.00" y="-60.00" incLanes="gneE39_0" intLanes=":gneJ44_0_0" shape="60.00,-60.00 63.20,-60.00 60.00,-60.00">
        <request index="0" response="0" foes="0" cont="0"/>
    </junction>
    <junction id="gneJ45" type="priority" x="60.00" y="-40.00" incLanes="gneE40_0" intLanes=":gneJ45_0_0" shape="60.00,-40.00 63.20,-40.00 60.00,-40.00">
        <request index="0" response="0" foes="0" cont="0"/>
    </junction>
    <junction id="gneJ46" type="priority" x="60.00" y="-20.00" incLanes="gneE41_0" intLanes=":gneJ46_0_0" shape="60.00,-20.00 63.20,-20.00 60.00,-20.00">
        <request index="0" response="0" foes="0" cont="0"/>
    </junction>
    <junction id="gneJ47" type="priority_stop" x="60.00" y="0.00" incLanes="gneE42_0" intLanes=":gneJ47_0_0" shape="63.20,0.00 60.00,0.00 62.86,1.43 63.10,0.93 63.15,0.74 63.19,0.55 63.20,0.32">
        <request index="0" response="0" foes="0" cont="0"/>
    </junction>
    <junction id="gneJ48" type="priority" x="40.00" y="40.00" incLanes="gneE43.23_0" intLanes=":gneJ48_0_0" shape="40.00,40.76 43.20,40.76 40.34,39.32 40.10,39.82 40.05,40.01 40.01,40.20 40.00,40.44">
        <request index="0" response="0" foes="0" cont="0"/>
    </junction>
    <junction id="gneJ49" type="priority" x="40.00" y="60.00" incLanes="gneE44_0" intLanes=":gneJ49_0_0" shape="40.00,60.00 43.20,60.00 40.00,60.00">
        <request index="0" response="0" foes="0" cont="0"/>
    </junction>
    <junction id="gneJ5" type="priority" x="0.00" y="140.00" incLanes="gneE4_0" intLanes=":gneJ5_0_0" shape="-3.20,140.00 0.00,140.00 -3.20,140.00">
        <request index="0" response="0" foes="0" cont="0"/>
    </junction>