<?xml version="1.0" encoding="UTF-8"?>

<!-- generated on 09/16/19 02:58:07 by Eclipse SUMO netedit Version 1.3.1
<configuration xmlns:xsi="http://www.w3.org/2001/XMLSchema-instance" xsi:noNamespaceSchemaLocation="http://sumo.dlr.de/xsd/netconvertConfiguration.xsd">

    <input>
        <sumo-net-file value="C:\Sumo_Projects\Greenline_LRT_Baseline_00\Greenline_LRT_Baseline_00.net.xml"/>
    </input>

    <output>
        <output-file value="C:\Sumo_Projects\Greenline_LRT_Baseline_00\Greenline_LRT_Baseline_00.net.xml"/>
    </output>

    <processing>
        <geometry.max-grade.fix value="false"/>
        <offset.disable-normalization value="true"/>
        <opposites.guess.fix-lengths value="true"/>
        <lefthand value="false"/>
    </processing>

    <junctions>
        <no-turnarounds value="true"/>
        <junctions.corner-detail value="5"/>
        <junctions.limit-turn-speed value="5.5"/>
        <rectangular-lane-cut value="false"/>
    </junctions>

    <pedestrian>
        <walkingareas value="false"/>
    </pedestrian>

</configuration>
-->

<net version="1.3" junctionCornerDetail="5" limitTurnSpeed="5.50" xmlns:xsi="http://www.w3.org/2001/XMLSchema-instance" xsi:noNamespaceSchemaLocation="http://sumo.dlr.de/xsd/net_file.xsd">

    <location netOffset="0.00,0.00" convBoundary="0.00,-340.00,60.58,260.00" origBoundary="-10000000000.00,-10000000000.00,10000000000.00,10000000000.00" projParameter="!"/>

    <edge id=":gneJ0_0" function="internal">
        <lane id=":gneJ0_0_0" index="0" disallow="pedestrian" speed="3.90" length="2.58" shape="0.00,261.60 -0.70,261.50 -1.20,261.20 -1.50,260.70 -1.60,260.00"/>
    </edge>
    <edge id=":gneJ1_0" function="internal">
        <lane id=":gneJ1_0_0" index="0" disallow="pedestrian" speed="13.89" length="0.10" shape="-1.60,240.00 -1.60,240.00"/>
    </edge>
    <edge id=":gneJ10_0" function="internal">
        <lane id=":gneJ10_0_0" index="0" disallow="pedestrian" speed="13.89" length="0.10" shape="-1.60,40.00 -1.60,40.00"/>
    </edge>
    <edge id=":gneJ11_0" function="internal">
        <lane id=":gneJ11_0_0" index="0" disallow="pedestrian" speed="4.20" length="1.26" shape="-1.60,20.00 -1.57,19.68 -1.48,19.39 -1.34,19.12 -1.13,18.87"/>
    </edge>
    <edge id=":gneJ12_0" function="internal">
        <lane id=":gneJ12_0_0" index="0" disallow="pedestrian" speed="5.84" length="2.83" shape="17.35,0.39 17.81,-0.16 18.14,-0.77 18.33,-1.44 18.40,-2.15"/>
    </edge>
    <edge id=":gneJ13_0" function="internal">
        <lane id=":gneJ13_0_0" index="0" disallow="pedestrian" speed="13.89" length="0.10" shape="18.40,-20.00 18.40,-20.00"/>
    </edge>
    <edge id=":gneJ14_0" function="internal">
        <lane id=":gneJ14_0_0" index="0" disallow="pedestrian" speed="13.89" length="0.10" shape="18.40,-40.00 18.40,-40.00"/>
    </edge>
    <edge id=":gneJ15_0" function="internal">
        <lane id=":gneJ15_0_0" index="0" disallow="pedestrian" speed="13.89" length="0.10" shape="18.40,-60.00 18.40,-60.00"/>
    </edge>
    <edge id=":gneJ16_0" function="internal">
        <lane id=":gneJ16_0_0" index="0" disallow="pedestrian" speed="13.89" length="0.10" shape="18.40,-80.00 18.40,-80.00"/>
    </edge>
    <edge id=":gneJ17_0" function="internal">
        <lane id=":gneJ17_0_0" index="0" disallow="pedestrian" speed="13.89" length="0.10" shape="18.40,-100.00 18.40,-100.00"/>
    </edge>
    <edge id=":gneJ18_0" function="internal">
        <lane id=":gneJ18_0_0" index="0" disallow="pedestrian" speed="13.89" length="0.10" shape="18.40,-120.00 18.40,-120.00"/>
    </edge>
    <edge id=":gneJ19_0" function="internal">
        <lane id=":gneJ19_0_0" index="0" disallow="pedestrian" speed="13.89" length="0.10" shape="18.40,-140.00 18.40,-140.00"/>
    </edge>
    <edge id=":gneJ2_0" function="internal">
        <lane id=":gneJ2_0_0" index="0" disallow="pedestrian" speed="13.89" length="0.10" shape="-1.60,220.00 -1.60,220.00"/>
    </edge>
    <edge id=":gneJ20_0" function="internal">
        <lane id=":gneJ20_0_0" index="0" disallow="pedestrian" speed="13.89" length="0.10" shape="18.40,-160.00 18.40,-160.00"/>
    </edge>
    <edge id=":gneJ22_0" function="internal">
        <lane id=":gneJ22_0_0" index="0" disallow="pedestrian" speed="13.89" length="0.10" shape="18.40,-180.00 18.40,-180.00"/>
    </edge>
    <edge id=":gneJ23_0" function="internal">
        <lane id=":gneJ23_0_0" index="0" disallow="pedestrian" speed="13.89" length="0.10" shape="18.40,-200.00 18.40,-200.00"/>
    </edge>
    <edge id=":gneJ25_0" function="internal">
        <lane id=":gneJ25_0_0" index="0" disallow="pedestrian" speed="13.89" length="0.10" shape="18.40,-240.00 18.40,-240.00"/>
    </edge>
    <edge id=":gneJ26_0" function="internal">
        <lane id=":gneJ26_0_0" index="0" disallow="pedestrian" speed="13.89" length="0.10" shape="18.40,-260.00 18.40,-260.00"/>
    </edge>
    <edge id=":gneJ3_0" function="internal">
        <lane id=":gneJ3_0_0" index="0" disallow="pedestrian" speed="13.89" length="0.10" shape="-1.60,180.00 -1.60,180.00"/>
    </edge>
    <edge id=":gneJ35_0" function="internal">
        <lane id=":gneJ35_0_0" index="0" disallow="pedestrian" speed="13.89" length="0.29" shape="61.60,-237.13 61.60,-236.84"/>
    </edge>
    <edge id=":gneJ37_0" function="internal">
        <lane id=":gneJ37_0_0" index="0" disallow="pedestrian" speed="13.89" length="0.10" shape="61.60,-200.00 61.60,-200.00"/>
    </edge>
    <edge id=":gneJ38_0" function="internal">
        <lane id=":gneJ38_0_0" index="0" disallow="pedestrian" speed="13.89" length="0.10" shape="61.60,-180.00 61.60,-180.00"/>
    </edge>
    <edge id=":gneJ39_0" function="internal">
        <lane id=":gneJ39_0_0" index="0" disallow="pedestrian" speed="13.89" length="0.10" shape="61.60,-160.00 61.60,-160.00"/>
    </edge>
    <edge id=":gneJ4_0" function="internal">
        <lane id=":gneJ4_0_0" index="0" disallow="pedestrian" speed="13.89" length="0.10" shape="-1.60,160.00 -1.60,160.00"/>
    </edge>
    <edge id=":gneJ40_0" function="internal">
        <lane id=":gneJ40_0_0" index="0" disallow="pedestrian" speed="13.89" length="0.10" shape="61.60,-140.00 61.60,-140.00"/>
    </edge>
    <edge id=":gneJ41_0" function="internal">
        <lane id=":gneJ41_0_0" index="0" disallow="pedestrian" speed="13.89" length="0.10" shape="61.60,-120.00 61.60,-120.00"/>
    </edge>
    <edge id=":gneJ42_0" function="internal">
        <lane id=":gneJ42_0_0" index="0" disallow="pedestrian" speed="13.89" length="0.10" shape="61.60,-100.00 61.60,-100.00"/>
    </edge>
    <edge id=":gneJ43_0" function="internal">
        <lane id=":gneJ43_0_0" index="0" disallow="pedestrian" speed="13.89" length="0.10" shape="61.60,-80.00 61.60,-80.00"/>
    </edge>
    <edge id=":gneJ44_0" function="internal">
        <lane id=":gneJ44_0_0" index="0" disallow="pedestrian" speed="13.89" length="0.10" shape="61.60,-60.00 61.60,-60.00"/>
    </edge>
    <edge id=":gneJ45_0" function="internal">
        <lane id=":gneJ45_0_0" index="0" disallow="pedestrian" speed="13.89" length="0.10" shape="61.60,-40.00 61.60,-40.00"/>
    </edge>
    <edge id=":gneJ46_0" function="internal">
        <lane id=":gneJ46_0_0" index="0" disallow="pedestrian" speed="13.89" length="0.10" shape="61.60,-20.00 61.60,-20.00"/>
    </edge>
    <edge id=":gneJ47_0" function="internal">
        <lane id=":gneJ47_0_0" index="0" disallow="pedestrian" speed="13.89" length="0.75" shape="61.60,0.00 61.60,0.22 61.58,0.37 61.53,0.52 61.43,0.72"/>
    </edge>
    <edge id=":gneJ48_0" function="internal">
        <lane id=":gneJ48_0_0" index="0" disallow="pedestrian" speed="7.09" length="1.68" shape="41.98,39.62 41.76,40.06 41.65,40.39 41.61,40.73 41.60,41.23"/>
    </edge>
    <edge id=":gneJ49_0" function="internal">
        <lane id=":gneJ49_0_0" index="0" disallow="pedestrian" speed="13.89" length="0.10" shape="41.60,60.00 41.60,60.00"/>
    </edge>
    <edge id=":gneJ5_0" function="internal">
        <lane id=":gneJ5_0_0" index="0" disallow="pedestrian" speed="13.89" length="0.10" shape="-1.60,140.00 -1.60,140.00"/>
    </edge>
    <edge id=":gneJ50_0" function="internal">
        <lane id=":gneJ50_0_0" index="0" disallow="pedestrian" speed="13.89" length="0.10" shape="41.60,80.00 41.60,80.00"/>
    </edge>
    <edge id=":gneJ51_0" function="internal">
        <lane id=":gneJ51_0_0" index="0" disallow="pedestrian" speed="13.89" length="0.30" shape="41.60,99.84 41.60,100.15"/>
    </edge>
    <edge id=":gneJ53_0" function="internal">
        <lane id=":gneJ53_0_0" index="0" disallow="pedestrian" speed="13.89" length="0.30" shape="41.60,139.85 41.60,140.16"/>
    </edge>
    <edge id=":gneJ54_0" function="internal">
        <lane id=":gneJ54_0_0" index="0" disallow="pedestrian" speed="13.89" length="0.10" shape="41.60,160.00 41.60,160.00"/>
    </edge>
    <edge id=":gneJ55_0" function="internal">
        <lane id=":gneJ55_0_0" index="0" disallow="pedestrian" speed="13.89" length="0.10" shape="41.60,180.00 41.60,180.00"/>
    </edge>
    <edge id=":gneJ57_0" function="internal">
        <lane id=":gneJ57_0_0" index="0" disallow="pedestrian" speed="13.89" length="0.10" shape="41.60,220.00 41.60,220.00"/>
    </edge>
    <edge id=":gneJ58_0" function="internal">
        <lane id=":gneJ58_0_0" index="0" disallow="pedestrian" speed="13.89" length="0.10" shape="41.60,240.00 41.60,240.00"/>
    </edge>
    <edge id=":gneJ59_0" function="internal">
        <lane id=":gneJ59_0_0" index="0" disallow="pedestrian" speed="3.90" length="2.58" shape="41.60,260.00 41.50,260.70 41.20,261.20 40.70,261.50 40.00,261.60"/>
    </edge>
    <edge id=":gneJ6_0" function="internal">
        <lane id=":gneJ6_0_0" index="0" disallow="pedestrian" speed="13.89" length="0.10" shape="-1.60,120.00 -1.60,120.00"/>
    </edge>
    <edge id=":gneJ67_0" function="internal">
        <lane id=":gneJ67_0_0" index="0" disallow="pedestrian" speed="13.89" length="0.27" shape="41.76,121.04 41.76,121.31"/>
    </edge>
    <edge id=":gneJ7_0" function="internal">
        <lane id=":gneJ7_0_0" index="0" disallow="pedestrian" speed="13.89" length="0.10" shape="-1.60,100.00 -1.60,100.00"/>
    </edge>
    <edge id=":gneJ72_0" function="internal">
        <lane id=":gneJ72_0_0" index="0" disallow="pedestrian" speed="13.89" length="0.10" shape="18.40,-280.00 18.40,-280.00"/>
    </edge>
    <edge id=":gneJ73_0" function="internal">
        <lane id=":gneJ73_0_0" index="0" disallow="pedestrian" speed="13.89" length="0.10" shape="18.40,-300.00 18.40,-300.00"/>
    </edge>
    <edge id=":gneJ74_0" function="internal">
        <lane id=":gneJ74_0_0" index="0" disallow="pedestrian" speed="13.89" length="0.10" shape="18.40,-320.00 18.40,-320.00"/>
    </edge>
    <edge id=":gneJ75_0" function="internal">
        <lane id=":gneJ75_0_0" index="0" disallow="pedestrian" speed="3.90" length="2.58" shape="18.40,-340.00 18.50,-340.70 18.80,-341.20 19.30,-341.50 20.00,-341.60"/>
    </edge>
    <edge id=":gneJ76_0" function="internal">
        <lane id=":gneJ76_0_0" index="0" disallow="pedestrian" speed="3.90" length="2.58" shape="60.00,-341.60 60.70,-341.50 61.20,-341.20 61.50,-340.70 61.60,-340.00"/>
    </edge>
    <edge id=":gneJ77_0" function="internal">
        <lane id=":gneJ77_0_0" index="0" disallow="pedestrian" speed="13.89" length="0.10" shape="61.60,-320.00 61.60,-320.00"/>
    </edge>
    <edge id=":gneJ78_0" function="internal">
        <lane id=":gneJ78_0_0" index="0" disallow="pedestrian" speed="13.89" length="0.10" shape="61.60,-300.00 61.60,-300.00"/>
    </edge>
    <edge id=":gneJ79_0" function="internal">
        <lane id=":gneJ79_0_0" index="0" disallow="pedestrian" speed="13.89" length="0.29" shape="61.60,-280.17 61.60,-279.87"/>
    </edge>
    <edge id=":gneJ8_0" function="internal">
        <lane id=":gneJ8_0_0" index="0" disallow="pedestrian" speed="13.89" length="0.10" shape="-1.60,80.00 -1.60,80.00"/>
    </edge>
    <edge id=":gneJ80_0" function="internal">
        <lane id=":gneJ80_0_0" index="0" disallow="pedestrian" speed="13.89" length="0.10" shape="62.18,-257.81 62.18,-257.73"/>
    </edge>
    <edge id=":gneJ81_0" function="internal">
        <lane id=":gneJ81_0_0" index="0" disallow="pedestrian" speed="13.89" length="0.10" shape="51.05,21.48 51.05,21.48"/>
    </edge>
    <edge id=":gneJ9_0" function="internal">
        <lane id=":gneJ9_0_0" index="0" disallow="pedestrian" speed="13.89" length="0.10" shape="-1.60,60.00 -1.60,60.00"/>
    </edge>

    <edge id="bottom" from="gneJ75" to="gneJ76" priority="-1">
        <lane id="bottom_0" index="0" allow="pedestrian" speed="13.89" length="40.00" width="2.00" shape="20.00,-344.20 60.00,-344.20"/>
        <lane id="bottom_1" index="1" disallow="pedestrian" speed="13.89" length="40.00" shape="20.00,-341.60 60.00,-341.60"/>
    </edge>
    <edge id="gneE0" from="gneJ0" to="gneJ1" priority="-1">
        <lane id="gneE0_0" index="0" allow="pedestrian" speed="13.89" length="20.00" width="2.00" shape="-4.20,260.00 -4.20,240.00"/>
        <lane id="gneE0_1" index="1" disallow="pedestrian" speed="13.89" length="20.00" shape="-1.60,260.00 -1.60,240.00"/>
    </edge>
    <edge id="gneE1" from="gneJ1" to="gneJ2" priority="-1">
        <lane id="gneE1_0" index="0" allow="pedestrian" speed="13.89" length="20.00" width="2.00" shape="-4.20,240.00 -4.20,220.00"/>
        <lane id="gneE1_1" index="1" disallow="pedestrian" speed="13.89" length="20.00" shape="-1.60,240.00 -1.60,220.00"/>
    </edge>
    <edge id="gneE10" from="gneJ10" to="gneJ11" priority="-1">
        <lane id="gneE10_0" index="0" allow="pedestrian" speed="13.89" length="20.00" width="2.00" shape="-4.20,40.00 -4.20,20.00"/>
        <lane id="gneE10_1" index="1" disallow="pedestrian" speed="13.89" length="20.00" shape="-1.60,40.00 -1.60,20.00"/>
    </edge>
    <edge id="gneE11" from="gneJ11" to="gneJ12" priority="-1">
        <lane id="gneE11_0" index="0" allow="pedestrian" speed="13.89" length="26.13" width="2.00" shape="-2.97,17.03 15.51,-1.45"/>
        <lane id="gneE11_1" index="1" disallow="pedestrian" speed="13.89" length="26.13" shape="-1.13,18.87 17.35,0.39"/>
    </edge>
    <edge id="gneE12" from="gneJ12" to="gneJ13" priority="-1">
        <lane id="gneE12_0" index="0" allow="pedestrian" speed="13.89" length="17.85" width="2.00" shape="15.80,-2.15 15.80,-20.00"/>
        <lane id="gneE12_1" index="1" disallow="pedestrian" speed="13.89" length="17.85" shape="18.40,-2.15 18.40,-20.00"/>
    </edge>
    <edge id="gneE13" from="gneJ13" to="gneJ14" priority="-1">
        <lane id="gneE13_0" index="0" allow="pedestrian" speed="13.89" length="20.00" width="2.00" shape="15.80,-20.00 15.80,-40.00"/>
        <lane id="gneE13_1" index="1" disallow="pedestrian" speed="13.89" length="20.00" shape="18.40,-20.00 18.40,-40.00"/>
    </edge>
    <edge id="gneE14" from="gneJ14" to="gneJ15" priority="-1">
        <lane id="gneE14_0" index="0" allow="pedestrian" speed="13.89" length="20.00" width="2.00" shape="15.80,-40.00 15.80,-60.00"/>
        <lane id="gneE14_1" index="1" disallow="pedestrian" speed="13.89" length="20.00" shape="18.40,-40.00 18.40,-60.00"/>
    </edge>
    <edge id="gneE15" from="gneJ15" to="gneJ16" priority="-1">
        <lane id="gneE15_0" index="0" allow="pedestrian" speed="13.89" length="20.00" width="2.00" shape="15.80,-60.00 15.80,-80.00"/>
        <lane id="gneE15_1" index="1" disallow="pedestrian" speed="13.89" length="20.00" shape="18.40,-60.00 18.40,-80.00"/>
    </edge>
    <edge id="gneE16" from="gneJ16" to="gneJ17" priority="-1">
        <lane id="gneE16_0" index="0" allow="pedestrian" speed="13.89" length="20.00" width="2.00" shape="15.80,-80.00 15.80,-100.00"/>
        <lane id="gneE16_1" index="1" disallow="pedestrian" speed="13.89" length="20.00" shape="18.40,-80.00 18.40,-100.00"/>
    </edge>
    <edge id="gneE17" from="gneJ17" to="gneJ18" priority="-1">
        <lane id="gneE17_0" index="0" allow="pedestrian" speed="13.89" length="20.00" width="2.00" shape="15.80,-100.00 15.80,-120.00"/>
        <lane id="gneE17_1" index="1" disallow="pedestrian" speed="13.89" length="20.00" shape="18.40,-100.00 18.40,-120.00"/>
    </edge>
    <edge id="gneE18" from="gneJ18" to="gneJ19" priority="-1">
        <lane id="gneE18_0" index="0" allow="pedestrian" speed="13.89" length="20.00" width="2.00" shape="15.80,-120.00 15.80,-140.00"/>
        <lane id="gneE18_1" index="1" disallow="pedestrian" speed="13.89" length="20.00" shape="18.40,-120.00 18.40,-140.00"/>
    </edge>
    <edge id="gneE19" from="gneJ19" to="gneJ20" priority="-1">
        <lane id="gneE19_0" index="0" allow="pedestrian" speed="13.89" length="20.00" width="2.00" shape="15.80,-140.00 15.80,-160.00"/>
        <lane id="gneE19_1" index="1" disallow="pedestrian" speed="13.89" length="20.00" shape="18.40,-140.00 18.40,-160.00"/>
    </edge>
    <edge id="gneE2" from="gneJ2" to="gneJ3" priority="-1">
        <lane id="gneE2_0" index="0" allow="pedestrian" speed="13.89" length="40.00" width="2.00" shape="-4.20,220.00 -4.20,180.00"/>
        <lane id="gneE2_1" index="1" disallow="pedestrian" speed="13.89" length="40.00" shape="-1.60,220.00 -1.60,180.00"/>
    </edge>
    <edge id="gneE22" from="gneJ22" to="gneJ23" priority="-1">
        <lane id="gneE22_0" index="0" allow="pedestrian" speed="13.89" length="20.00" width="2.00" shape="15.80,-180.00 15.80,-200.00"/>
        <lane id="gneE22_1" index="1" disallow="pedestrian" speed="13.89" length="20.00" shape="18.40,-180.00 18.40,-200.00"/>
    </edge>
    <edge id="gneE23" from="gneJ23" to="gneJ25" priority="-1">
        <lane id="gneE23_0" index="0" allow="pedestrian" speed="13.89" length="40.00" width="2.00" shape="15.80,-200.00 15.80,-240.00"/>
        <lane id="gneE23_1" index="1" disallow="pedestrian" speed="13.89" length="40.00" shape="18.40,-200.00 18.40,-240.00"/>
    </edge>
    <edge id="gneE25" from="gneJ25" to="gneJ26" priority="-1">
        <lane id="gneE25_0" index="0" allow="pedestrian" speed="13.89" length="20.00" width="2.00" shape="15.80,-240.00 15.80,-260.00"/>
        <lane id="gneE25_1" index="1" disallow="pedestrian" speed="13.89" length="20.00" shape="18.40,-240.00 18.40,-260.00"/>
    </edge>
    <edge id="gneE3" from="gneJ3" to="gneJ4" priority="-1">
        <lane id="gneE3_0" index="0" allow="pedestrian" speed="13.89" length="20.00" width="2.00" shape="-4.20,180.00 -4.20,160.00"/>
        <lane id="gneE3_1" index="1" disallow="pedestrian" speed="13.89" length="20.00" shape="-1.60,180.00 -1.60,160.00"/>
    </edge>
    <edge id="gneE31" from="gneJ35" to="gneJ37" priority="-1">
        <lane id="gneE31_0" index="0" allow="pedestrian" speed="13.89" length="36.84" width="2.00" shape="64.20,-236.84 64.20,-200.00"/>
        <lane id="gneE31_1" index="1" disallow="pedestrian" speed="13.89" length="36.84" shape="61.60,-236.84 61.60,-200.00"/>
    </edge>
    <edge id="gneE33" from="gneJ37" to="gneJ38" priority="-1">
        <lane id="gneE33_0" index="0" allow="pedestrian" speed="13.89" length="20.00" width="2.00" shape="64.20,-200.00 64.20,-180.00"/>
        <lane id="gneE33_1" index="1" disallow="pedestrian" speed="13.89" length="20.00" shape="61.60,-200.00 61.60,-180.00"/>
    </edge>
    <edge id="gneE34" from="gneJ38" to="gneJ39" priority="-1">
        <lane id="gneE34_0" index="0" allow="pedestrian" speed="13.89" length="20.00" width="2.00" shape="64.20,-180.00 64.20,-160.00"/>
        <lane id="gneE34_1" index="1" disallow="pedestrian" speed="13.89" length="20.00" shape="61.60,-180.00 61.60,-160.00"/>
    </edge>
    <edge id="gneE35" from="gneJ39" to="gneJ40" priority="-1">
        <lane id="gneE35_0" index="0" allow="pedestrian" speed="13.89" length="20.00" width="2.00" shape="64.20,-160.00 64.20,-140.00"/>
        <lane id="gneE35_1" index="1" disallow="pedestrian" speed="13.89" length="20.00" shape="61.60,-160.00 61.60,-140.00"/>
    </edge>
    <edge id="gneE36" from="gneJ40" to="gneJ41" priority="-1">
        <lane id="gneE36_0" index="0" allow="pedestrian" speed="13.89" length="20.00" width="2.00" shape="64.20,-140.00 64.20,-120.00"/>
        <lane id="gneE36_1" index="1" disallow="pedestrian" speed="13.89" length="20.00" shape="61.60,-140.00 61.60,-120.00"/>
    </edge>
    <edge id="gneE37" from="gneJ41" to="gneJ42" priority="-1">
        <lane id="gneE37_0" index="0" allow="pedestrian" speed="13.89" length="20.00" width="2.00" shape="64.20,-120.00 64.20,-100.00"/>
        <lane id="gneE37_1" index="1" disallow="pedestrian" speed="13.89" length="20.00" shape="61.60,-120.00 61.60,-100.00"/>
    </edge>
    <edge id="gneE38" from="gneJ42" to="gneJ43" priority="-1">
        <lane id="gneE38_0" index="0" allow="pedestrian" speed="13.89" length="20.00" width="2.00" shape="64.20,-100.00 64.20,-80.00"/>
        <lane id="gneE38_1" index="1" disallow="pedestrian" speed="13.89" length="20.00" shape="61.60,-100.00 61.60,-80.00"/>
    </edge>
    <edge id="gneE39" from="gneJ43" to="gneJ44" priority="-1">
        <lane id="gneE39_0" index="0" allow="pedestrian" speed="13.89" length="20.00" width="2.00" shape="64.20,-80.00 64.20,-60.00"/>
        <lane id="gneE39_1" index="1" disallow="pedestrian" speed="13.89" length="20.00" shape="61.60,-80.00 61.60,-60.00"/>
    </edge>
    <edge id="gneE4" from="gneJ4" to="gneJ5" priority="-1">
        <lane id="gneE4_0" index="0" allow="pedestrian" speed="13.89" length="20.00" width="2.00" shape="-4.20,160.00 -4.20,140.00"/>
        <lane id="gneE4_1" index="1" disallow="pedestrian" speed="13.89" length="20.00" shape="-1.60,160.00 -1.60,140.00"/>
    </edge>
    <edge id="gneE40" from="gneJ44" to="gneJ45" priority="-1">
        <lane id="gneE40_0" index="0" allow="pedestrian" speed="13.89" length="20.00" width="2.00" shape="64.20,-60.00 64.20,-40.00"/>
        <lane id="gneE40_1" index="1" disallow="pedestrian" speed="13.89" length="20.00" shape="61.60,-60.00 61.60,-40.00"/>
    </edge>
    <edge id="gneE41" from="gneJ45" to="gneJ46" priority="-1">
        <lane id="gneE41_0" index="0" allow="pedestrian" speed="13.89" length="20.00" width="2.00" shape="64.20,-40.00 64.20,-20.00"/>
        <lane id="gneE41_1" index="1" disallow="pedestrian" speed="13.89" length="20.00" shape="61.60,-40.00 61.60,-20.00"/>
    </edge>
    <edge id="gneE42" from="gneJ46" to="gneJ47" priority="-1">
        <lane id="gneE42_0" index="0" allow="pedestrian" speed="13.89" length="20.00" width="2.00" shape="64.20,-20.00 64.20,0.00"/>
        <lane id="gneE42_1" index="1" disallow="pedestrian" speed="13.89" length="20.00" shape="61.60,-20.00 61.60,0.00"/>
    </edge>
    <edge id="gneE43" from="gneJ47" to="gneJ81" priority="-1">
        <lane id="gneE43_0" index="0" allow="pedestrian" speed="13.89" length="23.21" width="2.00" shape="63.76,1.88 53.38,22.64"/>
        <lane id="gneE43_1" index="1" disallow="pedestrian" speed="13.89" length="23.21" shape="61.43,0.72 51.05,21.48"/>
    </edge>
    <edge id="gneE43.23" from="gneJ81" to="gneJ48" priority="-1">
        <lane id="gneE43.23_0" index="0" allow="pedestrian" speed="13.89" length="20.28" width="2.00" shape="53.38,22.64 44.31,40.78"/>
        <lane id="gneE43.23_1" index="1" disallow="pedestrian" speed="13.89" length="20.28" shape="51.05,21.48 41.98,39.62"/>
    </edge>
    <edge id="gneE44" from="gneJ48" to="gneJ49" priority="-1">
        <lane id="gneE44_0" index="0" allow="pedestrian" speed="13.89" length="18.77" width="2.00" shape="44.20,41.23 44.20,60.00"/>
        <lane id="gneE44_1" index="1" disallow="pedestrian" speed="13.89" length="18.77" shape="41.60,41.23 41.60,60.00"/>
    </edge>
    <edge id="gneE45" from="gneJ49" to="gneJ50" priority="-1">
        <lane id="gneE45_0" index="0" allow="pedestrian" speed="13.89" length="20.00" width="2.00" shape="44.20,60.00 44.20,80.00"/>
        <lane id="gneE45_1" index="1" disallow="pedestrian" speed="13.89" length="20.00" shape="41.60,60.00 41.60,80.00"/>
    </edge>
    <edge id="gneE46" from="gneJ50" to="gneJ51" priority="-1">
        <lane id="gneE46_0" index="0" allow="pedestrian" speed="13.89" length="19.84" width="2.00" shape="44.20,80.00 44.20,99.84"/>
        <lane id="gneE46_1" index="1" disallow="pedestrian" speed="13.89" length="19.84" shape="41.60,80.00 41.60,99.84"/>
    </edge>
    <edge id="gneE49" from="gneJ53" to="gneJ54" priority="-1">
        <lane id="gneE49_0" index="0" allow="pedestrian" speed="13.89" length="19.84" width="2.00" shape="44.20,140.16 44.20,160.00"/>
        <lane id="gneE49_1" index="1" disallow="pedestrian" speed="13.89" length="19.84" shape="41.60,140.16 41.60,160.00"/>
    </edge>
    <edge id="gneE5" from="gneJ5" to="gneJ6" priority="-1">
        <lane id="gneE5_0" index="0" allow="pedestrian" speed="13.89" length="20.00" width="2.00" shape="-4.20,140.00 -4.20,120.00"/>
        <lane id="gneE5_1" index="1" disallow="pedestrian" speed="13.89" length="20.00" shape="-1.60,140.00 -1.60,120.00"/>
    </edge>
    <edge id="gneE50" from="gneJ54" to="gneJ55" priority="-1">
        <lane id="gneE50_0" index="0" allow="pedestrian" speed="13.89" length="20.00" width="2.00" shape="44.20,160.00 44.20,180.00"/>
        <lane id="gneE50_1" index="1" disallow="pedestrian" speed="13.89" length="20.00" shape="41.60,160.00 41.60,180.00"/>
    </edge>
    <edge id="gneE53" from="gneJ57" to="gneJ58" priority="-1">
        <lane id="gneE53_0" index="0" allow="pedestrian" speed="13.89" length="20.00" width="2.00" shape="44.20,220.00 44.20,240.00"/>
        <lane id="gneE53_1" index="1" disallow="pedestrian" speed="13.89" length="20.00" shape="41.60,220.00 41.60,240.00"/>
    </edge>
    <edge id="gneE54" from="gneJ58" to="gneJ59" priority="-1">
        <lane id="gneE54_0" index="0" allow="pedestrian" speed="13.89" length="20.00" width="2.00" shape="44.20,240.00 44.20,260.00"/>
        <lane id="gneE54_1" index="1" disallow="pedestrian" speed="13.89" length="20.00" shape="41.60,240.00 41.60,260.00"/>
    </edge>
    <edge id="gneE58" from="gneJ20" to="gneJ22" priority="-1">
        <lane id="gneE58_0" index="0" allow="pedestrian" speed="13.89" length="20.00" width="2.00" shape="15.80,-160.00 15.80,-180.00"/>
        <lane id="gneE58_1" index="1" disallow="pedestrian" speed="13.89" length="20.00" shape="18.40,-160.00 18.40,-180.00"/>
    </edge>
    <edge id="gneE6" from="gneJ6" to="gneJ7" priority="-1">
        <lane id="gneE6_0" index="0" allow="pedestrian" speed="13.89" length="20.00" width="2.00" shape="-4.20,120.00 -4.20,100.00"/>
        <lane id="gneE6_1" index="1" disallow="pedestrian" speed="13.89" length="20.00" shape="-1.60,120.00 -1.60,100.00"/>
    </edge>
    <edge id="gneE61" from="gneJ67" to="gneJ53" priority="-1">
        <lane id="gneE61_0" index="0" allow="pedestrian" speed="13.89" length="18.55" width="2.00" shape="44.36,121.33 44.20,139.88"/>
        <lane id="gneE61_1" index="1" disallow="pedestrian" speed="13.89" length="18.55" shape="41.76,121.31 41.60,139.85"/>
    </edge>
    <edge id="gneE62" from="gneJ51" to="gneJ67" priority="-1">
        <lane id="gneE62_0" index="0" allow="pedestrian" speed="13.89" length="20.89" width="2.00" shape="44.20,100.13 44.36,121.02"/>
        <lane id="gneE62_1" index="1" disallow="pedestrian" speed="13.89" length="20.89" shape="41.60,100.15 41.76,121.04"/>
    </edge>
    <edge id="gneE63" from="gneJ55" to="gneJ57" priority="-1">
        <lane id="gneE63_0" index="0" allow="pedestrian" speed="13.89" length="40.00" width="2.00" shape="44.20,180.00 44.20,220.00"/>
        <lane id="gneE63_1" index="1" disallow="pedestrian" speed="13.89" length="40.00" shape="41.60,180.00 41.60,220.00"/>
    </edge>
    <edge id="gneE67" from="gneJ26" to="gneJ72" priority="-1">
        <lane id="gneE67_0" index="0" allow="pedestrian" speed="13.89" length="20.00" width="2.00" shape="15.80,-260.00 15.80,-280.00"/>
        <lane id="gneE67_1" index="1" disallow="pedestrian" speed="13.89" length="20.00" shape="18.40,-260.00 18.40,-280.00"/>
    </edge>
    <edge id="gneE68" from="gneJ72" to="gneJ73" priority="-1">
        <lane id="gneE68_0" index="0" allow="pedestrian" speed="13.89" length="20.00" width="2.00" shape="15.80,-280.00 15.80,-300.00"/>
        <lane id="gneE68_1" index="1" disallow="pedestrian" speed="13.89" length="20.00" shape="18.40,-280.00 18.40,-300.00"/>
    </edge>
    <edge id="gneE69" from="gneJ73" to="gneJ74" priority="-1">
        <lane id="gneE69_0" index="0" allow="pedestrian" speed="13.89" length="20.00" width="2.00" shape="15.80,-300.00 15.80,-320.00"/>
        <lane id="gneE69_1" index="1" disallow="pedestrian" speed="13.89" length="20.00" shape="18.40,-300.00 18.40,-320.00"/>
    </edge>
    <edge id="gneE7" from="gneJ7" to="gneJ8" priority="-1">
        <lane id="gneE7_0" index="0" allow="pedestrian" speed="13.89" length="20.00" width="2.00" shape="-4.20,100.00 -4.20,80.00"/>
        <lane id="gneE7_1" index="1" disallow="pedestrian" speed="13.89" length="20.00" shape="-1.60,100.00 -1.60,80.00"/>
    </edge>
    <edge id="gneE70" from="gneJ74" to="gneJ75" priority="-1">
        <lane id="gneE70_0" index="0" allow="pedestrian" speed="13.89" length="20.00" width="2.00" shape="15.80,-320.00 15.80,-340.00"/>
        <lane id="gneE70_1" index="1" disallow="pedestrian" speed="13.89" length="20.00" shape="18.40,-320.00 18.40,-340.00"/>
    </edge>
    <edge id="gneE72" from="gneJ76" to="gneJ77" priority="-1">
        <lane id="gneE72_0" index="0" allow="pedestrian" speed="13.89" length="20.00" width="2.00" shape="64.20,-340.00 64.20,-320.00"/>
        <lane id="gneE72_1" index="1" disallow="pedestrian" speed="13.89" length="20.00" shape="61.60,-340.00 61.60,-320.00"/>
    </edge>
    <edge id="gneE73" from="gneJ77" to="gneJ78" priority="-1">
        <lane id="gneE73_0" index="0" allow="pedestrian" speed="13.89" length="20.00" width="2.00" shape="64.20,-320.00 64.20,-300.00"/>
        <lane id="gneE73_1" index="1" disallow="pedestrian" speed="13.89" length="20.00" shape="61.60,-320.00 61.60,-300.00"/>
    </edge>
    <edge id="gneE74" from="gneJ78" to="gneJ79" priority="-1">