<?xml version="1.0" encoding="UTF-8"?>

<!-- generated on 09/10/19 00:37:33 by Eclipse SUMO duarouter Version 1.3.1
<configuration xmlns:xsi="http://www.w3.org/2001/XMLSchema-instance" xsi:noNamespaceSchemaLocation="http://sumo.dlr.de/xsd/duarouterConfiguration.xsd">

    <input>
        <net-file value="Greenline_LRT_Baseline_00.net.xml"/>
        <additional-files value="Greenline_LRT_Baseline_00.stops.add.xml"/>
        <route-files value="Greenline_LRT_Baseline_00.pedestrian.trips.xml"/>
    </input>

    <output>
        <output-file value="Greenline_LRT_Baseline_00.rou.xml"/>
        <alternatives-output value="Greenline_LRT_Baseline_00.rou.alt.xml"/>
    </output>

    <time>
        <begin value="0"/>
        <end value="1.0"/>
    </time>

    <report>
        <no-warnings value="true"/>
        <ignore-errors value="true"/>
        <no-step-log value="true"/>
    </report>
 <vType id="car" length="5" accel="3.5" decel="2.2" sigma="1.0"/>
</configuration>
-->

<routes>
    <flow id="carflow" type="car" beg="0" end="0" number="100" from="top" to="bottom"/>
    <route id="route0" edges="bottom">
        <stop lane="bottom_0" endPos="15" duration="60"/>
    </route>
    <route id="route1" edges="top">
        <stop lane="top_0" endPos="15" duration="60"/>
    </route>
</routes>
